Circuit: * C:\Users\cordo\OneDrive\Escritorio\Repos_Imdea\Simulacion_Circuitos\LTspice\Differential_Probe\Option2.asc

WARNING: Node N006 is floating.
WARNING: Node N007 is floating.
WARNING: Node N008 is floating.
WARNING: Node N016 is floating.
WARNING: Node N017 is floating.
WARNING: Node N018 is floating.

Early termination of direct N-R iteration.
Direct Newton iteration failed to find .op point.  (Use ".option noopiter" to skip.)
Starting Gmin stepping
Gmin = 10
Gmin = 1.07374
vernier = 0.5
vernier = 0.25
vernier = 0.125
vernier = 0.0625
Gmin = 1.08884
vernier = 0.03125
vernier = 0.015625
Gmin = 1.03122
vernier = 0.0078125
vernier = 0.00390625
Gmin = 1.01823
vernier = 0.00520833
vernier = 0.00260417
Gmin = 1.01162
vernier = 0.00347222
vernier = 0.00173611
vernier = 0.00231481
vernier = 0.00115741
Gmin = 1.00877
vernier = 0.00154321
vernier = 0.000771604
Gmin = 1.00673
vernier = 0.00102881
vernier = 0.000514403
vernier = 0.00068587
Gmin = 1.00553
vernier = 0.000514403
vernier = 0.00068587
vernier = 0.000514402
Gmin = 1.00475
Gmin = 0
Gmin stepping failed

Starting source stepping with srcstepmethod=0
Source Step = 3.0303%
Source Step = 23.4848%
Source Step = 31.0606%
Source Step = 38.6364%
Source Step = 46.2121%
Source Step = 53.7879%
vernier = 0.375
Source Step = 62.1212%
Source Step = 73.4848%
Source Step = 84.8485%
Source Step = 96.2121%
Source stepping succeeded in finding the operating point.


Date: Thu Aug 31 22:14:08 2023
Total elapsed time: 0.696 seconds.

tnom = 27
temp = 27
method = trap
totiter = 6324
traniter = 0
tranpoints = 0
accept = 0
rejected = 0
matrix size = 62
fillins = 194
solver = Normal
Matrix Compiler1:     816 opcodes
Matrix Compiler2: 9.69 KB object code size  1.0/1.2/[0.5]

